Version 4
SHEET 1 1100 680
WIRE 16 0 -16 0
WIRE 144 0 96 0
WIRE 48 96 48 80
WIRE -112 112 -176 112
WIRE -16 112 -16 0
WIRE -16 112 -32 112
WIRE 16 112 -16 112
WIRE 144 112 144 0
WIRE 256 112 144 112
WIRE 336 112 256 112
WIRE 560 112 400 112
WIRE 720 112 560 112
WIRE 144 128 144 112
WIRE 144 128 80 128
WIRE 720 128 720 112
WIRE 768 128 720 128
WIRE -176 144 -176 112
WIRE 16 144 -48 144
WIRE 944 144 832 144
WIRE 768 160 752 160
WIRE 48 208 48 160
WIRE -176 224 -176 208
WIRE 752 256 752 160
WIRE 752 256 656 256
WIRE 624 272 560 272
WIRE 656 272 656 256
WIRE 656 272 624 272
WIRE -48 304 -48 144
WIRE 144 304 -48 304
WIRE 176 304 144 304
WIRE -48 320 -48 304
WIRE 48 320 -48 320
WIRE 176 352 176 304
WIRE -128 416 -192 416
WIRE -32 416 -128 416
WIRE 48 416 48 320
WIRE 624 416 624 352
WIRE -192 432 -192 416
WIRE 176 448 176 416
FLAG 48 80 5V
FLAG -320 288 0
FLAG -320 208 5V
FLAG 176 528 0
FLAG -128 496 0
FLAG 48 208 0
FLAG -176 224 0
FLAG -128 336 5V
FLAG -192 496 0
FLAG 624 416 0
FLAG 800 176 0
FLAG 800 112 5V
FLAG 944 144 PWMOutput
FLAG 560 192 0
FLAG 480 272 5V
FLAG 256 112 AmplifierOutput
FLAG 144 304 SignalInput
SYMBOL voltage -320 192 R0
WINDOW 123 0 0 Left 0
WINDOW 39 0 0 Left 0
SYMATTR InstName V1
SYMATTR Value 5
SYMBOL res 0 -16 M90
WINDOW 0 0 56 VBottom 2
WINDOW 3 32 56 VTop 2
SYMATTR InstName R11
SYMATTR Value 220k
SYMBOL res -16 128 M270
WINDOW 0 32 56 VTop 2
WINDOW 3 0 56 VBottom 2
SYMATTR InstName R2
SYMATTR Value 100k
SYMBOL voltage 176 432 R0
WINDOW 123 0 0 Left 0
WINDOW 39 0 0 Left 0
SYMATTR InstName V2
SYMATTR Value SINE(0 0.8 100)
SYMBOL OpAmps\\OP777 48 64 R0
SYMATTR InstName U1
SYMBOL cap -176 496 R180
WINDOW 0 24 56 Left 2
WINDOW 3 24 8 Left 2
SYMATTR InstName C1
SYMATTR Value 0.1µ
SYMBOL res -144 400 R0
SYMATTR InstName R3
SYMATTR Value 100k
SYMBOL res -144 320 R0
SYMATTR InstName R6
SYMATTR Value 100k
SYMBOL cap -192 144 R0
SYMATTR InstName C2
SYMATTR Value 0.1µ
SYMBOL res 64 400 R90
WINDOW 0 0 56 VBottom 2
WINDOW 3 32 56 VTop 2
SYMATTR InstName R1
SYMATTR Value 100k
SYMBOL cap 192 416 R180
WINDOW 0 24 56 Left 2
WINDOW 3 24 8 Left 2
SYMATTR InstName C3
SYMATTR Value 0.1µ
SYMBOL OpAmps\\OP777 800 80 R0
SYMATTR InstName U2
SYMBOL res 640 368 R180
WINDOW 0 36 76 Left 2
WINDOW 3 36 40 Left 2
SYMATTR InstName R5
SYMATTR Value 1k
SYMBOL res 576 208 R180
WINDOW 0 36 76 Left 2
WINDOW 3 36 40 Left 2
SYMATTR InstName R7
SYMATTR Value 1000000
SYMBOL cap 400 96 R90
WINDOW 0 0 32 VBottom 2
WINDOW 3 32 32 VTop 2
SYMATTR InstName C4
SYMATTR Value 0.1µ
SYMBOL res 576 256 R90
WINDOW 0 0 56 VBottom 2
WINDOW 3 32 56 VTop 2
SYMATTR InstName R8
SYMATTR Value 10K
TEXT 288 -32 Left 2 !.tran 100m
TEXT 640 320 Left 2 ;POT
TEXT -168 -160 Left 3 ;OPAMP based music signal to PWM signal (For Tesla Coil Interrupter)
TEXT -32 -80 Left 2 ;Amplifier Stage
TEXT 544 -72 Left 2 ;Comparator Stage
