Version 4
SHEET 1 880 680
WIRE -48 48 -192 48
WIRE 160 48 32 48
WIRE 464 48 160 48
WIRE 160 96 160 48
WIRE 464 128 464 48
WIRE 480 128 464 128
WIRE -64 320 -192 320
WIRE 160 320 16 320
WIRE 480 320 480 208
WIRE 480 320 160 320
FLAG -192 128 0
FLAG -192 400 0
FLAG 160 384 0
FLAG 160 160 0
FLAG -432 256 0
FLAG -432 176 10V
FLAG 160 -16 10V
FLAG 160 256 10V
SYMBOL diode 176 160 R180
WINDOW 0 24 64 Left 2
WINDOW 3 -181 33 Left 2
SYMATTR InstName D1
SYMATTR Value VS-E5TH0812
SYMBOL diode 176 384 R180
WINDOW 0 24 64 Left 2
WINDOW 3 -168 28 Left 2
SYMATTR InstName D2
SYMATTR Value VS-E5TH0812
SYMBOL voltage -192 32 R0
WINDOW 3 -113 138 Left 2
WINDOW 123 0 0 Left 0
WINDOW 39 0 0 Left 0
SYMATTR Value PULSE(0 14 0 0 0 0.005m .01m)
SYMATTR InstName V1
SYMBOL voltage -192 304 R0
WINDOW 3 -115 -48 Left 2
WINDOW 123 0 0 Left 0
WINDOW 39 0 0 Left 0
SYMATTR Value PULSE(14 0 0 0 0 0.005m .01m)
SYMATTR InstName V
SYMBOL res 48 32 R90
WINDOW 0 0 56 VBottom 2
WINDOW 3 32 56 VTop 2
SYMATTR InstName R1
SYMATTR Value 20
SYMBOL res 32 304 R90
WINDOW 0 0 56 VBottom 2
WINDOW 3 32 56 VTop 2
SYMATTR InstName R2
SYMATTR Value 20
SYMBOL diode 176 48 R180
WINDOW 0 24 64 Left 2
WINDOW 3 -173 34 Left 2
SYMATTR InstName D3
SYMATTR Value VS-E5TH0812
SYMBOL diode 176 320 R180
WINDOW 0 24 64 Left 2
WINDOW 3 -171 37 Left 2
SYMATTR InstName D4
SYMATTR Value VS-E5TH0812
SYMBOL voltage -432 160 R0
WINDOW 123 0 0 Left 0
WINDOW 39 0 0 Left 0
SYMATTR InstName V2
SYMATTR Value 10
SYMBOL ind 464 112 R0
SYMATTR InstName L1
SYMATTR Value 1m
TEXT 344 -72 Left 2 !.tran 1m
TEXT -184 -112 Left 3 ;Voltage Limiting using Diodes Simulation
